/*--------------------------------*- C++ -*----------------------------------*\
| =========                 |                                                 |
| \\      /  F ield         | OpenFOAM: The Open Source CFD Toolbox           |
|  \\    /   O peration     | Version:  2012                                  |
|   \\  /    A nd           | Website:  www.openfoam.com                      |
|    \\/     M anipulation  |                                                 |
\*---------------------------------------------------------------------------*/
FoamFile
{
    version     2.0;
    format      ascii;
    class       volScalarField;
    location    "0";
    object      k;
}
// * * * * * * * * * * * * * * * * * * * * * * * * * * * * * * * * * * * * * //

dimensions      [0 2 -2 0 0 0 0];


internalField   uniform 0.1;

boundaryField
{
    inlet
    {
        type            atmBoundaryLayerInletK;
        #include        "ABLConditions"
        value           uniform 0;
    }
    ground
    {
        type            kqRWallFunction;
        value           uniform 0.1;
    }
    wtwalls
    {
        type            kqRWallFunction;
        value           uniform 0.1;
    }
    top
    {
        type            atmBoundaryLayerInletK;
        #include        "ABLConditions"
        value           uniform 0;
    }
    outlet
    {
        type            zeroGradient;
    }
    defaultFaces
    {
        type            kqRWallFunction;
        value           uniform 0.1;
    }
    buildingFaces_master
    {
        type            kqRWallFunction;
        coupleGroup     buildingFaces;
        value           uniform 0.1;
    }
    buildingFaces_slave
    {
        type            kqRWallFunction;
        coupleGroup     buildingFaces;
        value           uniform 0.1;
    }
}


// ************************************************************************* //
